taxonomy_feeders/autotest/test_R5-12.47-2.glm
 // $Id: R5-12.47-2.glm
 // 12.47 kV feeder
 //*********************************************
// validates voltages with FBS at selected load, node, meter, triplex_node, and
// triplex_meter objects
//	
// additionally, validates power_in/out/losses on several triplex_lines
//
// uses newer taxonomy feeders (shunt impedance has been added to
// transformers)
// 
clock{
	timezone EST+8EDT;
	timestamp '2000-01-01 0:00:00';
	stoptime '2000-01-01 1:00:00';
}

//#set profiler=1 
//********************************************* 
// modules 
module assert;
module tape; 
module powerflow{ 
     solver_method FBS; 
      default_maximum_voltage_error 1e-6;
}; 

//********************************************* 
object regulator:1562 { 
     name R5-12-47-2_reg_1; 
     from R5-12-47-2_node_317; 
     to R5-12-47-2_meter_47; 
     phases ABCN; 
     configuration regulator_configuration:1563; 
     object recorder { 
          property tap_A,tap_B,tap_C,power_in_A.real,power_in_A.imag,power_in_B.real,power_in_B.imag,power_in_C.real,power_in_C.imag,power_in.real,power_in.imag; 
          limit 1440; 
          interval 60; 
          file "R5-12.27-2_reg_output.csv"; 
     }; 
} 

object regulator_configuration:1563 { 
     name feeder_reg_cfg; 
     Control OUTPUT_VOLTAGE; 
     band_center 7500.0; 
     band_width 120; 
     connect_type WYE_WYE; 
     time_delay 30; 
     raise_taps 16; 
     lower_taps 16; 
     regulation 0.10; 
     tap_pos_A 0; 
     tap_pos_B 0; 
     tap_pos_C 0; 
} 

object capacitor:1560 { 
     name R5-12-47-2_cap_1; 
     phases ABCN; 
     pt_phase B; 
     parent R5-12-47-2_node_226; 
     phases_connected ABC; 
     control VOLT; 
     voltage_set_high 7300; 
     voltage_set_low 7100; 
     capacitor_A 0.2 MVAr; 
     capacitor_B 0.2 MVAr; 
     capacitor_C 0.2 MVAr; 
     control_level INDIVIDUAL; 
     time_delay 30.0; 
     dwell_time 30.0; 
     cap_nominal_voltage 7200; 
     nominal_voltage 7200; 
     object recorder { 
          property "switchA,switchB,switchC,voltage_A.real,voltage_A.imag,voltage_B.real,voltage_B.imag,voltage_C.real,voltage_C.imag"; 
          file R5-12.47-2_capacitor1.csv; 
          interval 60; 
          limit 1440; 
     }; 
} 

object fuse:1502 { 
     name R5-12-47-2_fuse_1; 
     phases ABCN; 
     from R5-12-47-2_node_50; 
     to R5-12-47-2_node_172; 
     current_limit 150; 
     status CLOSED; 
} 

object fuse:1503 { 
     name R5-12-47-2_fuse_2; 
     phases ABCN; 
     from R5-12-47-2_node_49; 
     to R5-12-47-2_node_173; 
     current_limit 150; 
     status CLOSED; 
} 

object fuse:1504 { 
     name R5-12-47-2_fuse_3; 
     phases ABCN; 
     from R5-12-47-2_node_18; 
     to R5-12-47-2_node_191; 
     current_limit 200; 
     status CLOSED; 
} 

object fuse:1505 { 
     name R5-12-47-2_fuse_4; 
     phases ABCN; 
     from R5-12-47-2_node_17; 
     to R5-12-47-2_node_199; 
     current_limit 200; 
     status CLOSED; 
} 

object fuse:1506 { 
     name R5-12-47-2_fuse_5; 
     phases ABCN; 
     from R5-12-47-2_node_20; 
     to R5-12-47-2_node_188; 
     current_limit 200; 
     status CLOSED; 
} 

object fuse:1507 { 
     name R5-12-47-2_fuse_6; 
     phases ABCN; 
     from R5-12-47-2_node_19; 
     to R5-12-47-2_node_202; 
     current_limit 200; 
     status CLOSED; 
} 

object fuse:1508 { 
     name R5-12-47-2_fuse_7; 
     phases ABCN; 
     from R5-12-47-2_node_57; 
     to R5-12-47-2_node_198; 
     current_limit 200; 
     status CLOSED; 
} 

object fuse:1509 { 
     name R5-12-47-2_fuse_8; 
     phases AN; 
     from R5-12-47-2_node_38; 
     to R5-12-47-2_node_189; 
     current_limit 200; 
     status CLOSED; 
} 

object fuse:1510 { 
     name R5-12-47-2_fuse_9; 
     phases AN; 
     from R5-12-47-2_node_37; 
     to R5-12-47-2_node_200; 
     current_limit 200; 
     status CLOSED; 
} 

object fuse:1511 { 
     name R5-12-47-2_fuse_10; 
     phases ABCN; 
     from R5-12-47-2_node_56; 
     to R5-12-47-2_node_197; 
     current_limit 200; 
     status CLOSED; 
} 

object fuse:1512 { 
     name R5-12-47-2_fuse_11; 
     phases ABCN; 
     from R5-12-47-2_node_44; 
     to R5-12-47-2_node_196; 
     current_limit 25; 
     status CLOSED; 
} 

object fuse:1513 { 
     name R5-12-47-2_fuse_12; 
     phases ABN; 
     from R5-12-47-2_node_42; 
     to R5-12-47-2_node_203; 
     current_limit 25; 
     status CLOSED; 
} 

object fuse:1514 { 
     name R5-12-47-2_fuse_13; 
     phases AN; 
     from R5-12-47-2_node_51; 
     to R5-12-47-2_node_204; 
     current_limit 25; 
     status CLOSED; 
} 

object fuse:1515 { 
     name R5-12-47-2_fuse_14; 
     phases ABCN; 
     from R5-12-47-2_node_46; 
     to R5-12-47-2_node_178; 
     current_limit 40; 
     status CLOSED; 
} 

object fuse:1516 { 
     name R5-12-47-2_fuse_15; 
     phases ABCN; 
     from R5-12-47-2_node_16; 
     to R5-12-47-2_node_175; 
     current_limit 200; 
     status CLOSED; 
} 

object fuse:1517 { 
     name R5-12-47-2_fuse_16; 
     phases ABCN; 
     from R5-12-47-2_node_15; 
     to R5-12-47-2_node_186; 
     current_limit 200; 
     status CLOSED; 
} 

object fuse:1518 { 
     name R5-12-47-2_fuse_17; 
     phases ABCN; 
     from R5-12-47-2_node_21; 
     to R5-12-47-2_node_184; 
     current_limit 25; 
     status CLOSED; 
} 

object fuse:1519 { 
     name R5-12-47-2_fuse_18; 
     phases ABCN; 
     from R5-12-47-2_node_9; 
     to R5-12-47-2_node_171; 
     current_limit 25; 
     status CLOSED; 
} 

object fuse:1520 { 
     name R5-12-47-2_fuse_19; 
     phases ACN; 
     from R5-12-47-2_node_9; 
     to R5-12-47-2_node_170; 
     current_limit 25; 
     status CLOSED; 
} 

object fuse:1521 { 
     name R5-12-47-2_fuse_20; 
     phases ABCN; 
     from R5-12-47-2_node_8; 
     to R5-12-47-2_node_179; 
     current_limit 50; 
     status CLOSED; 
} 

object fuse:1522 { 
     name R5-12-47-2_fuse_21; 
     phases ABCN; 
     from R5-12-47-2_node_6; 
     to R5-12-47-2_node_176; 
     current_limit 25; 
     status CLOSED; 
} 

object fuse:1523 { 
     name R5-12-47-2_fuse_22; 
     phases ABCN; 
     from R5-12-47-2_node_53; 
     to R5-12-47-2_node_182; 
     current_limit 25; 
     status CLOSED; 
} 

object fuse:1524 { 
     name R5-12-47-2_fuse_23; 
     phases ABCN; 
     from R5-12-47-2_node_5; 
     to R5-12-47-2_node_177; 
     current_limit 50; 
     status CLOSED; 
} 

object fuse:1525 { 
     name R5-12-47-2_fuse_24; 
     phases ABCN; 
     from R5-12-47-2_node_42; 
     to R5-12-47-2_node_183; 
     current_limit 10; 
     status CLOSED; 
} 

object fuse:1526 { 
     name R5-12-47-2_fuse_25; 
     phases CN; 
     from R5-12-47-2_node_3; 
     to R5-12-47-2_node_174; 
     current_limit 25; 
     status CLOSED; 
} 

object fuse:1527 { 
     name R5-12-47-2_fuse_26; 
     phases BN; 
     from R5-12-47-2_node_5; 
     to R5-12-47-2_node_195; 
     current_limit 25; 
     status CLOSED; 
} 

object fuse:1528 { 
     name R5-12-47-2_fuse_27; 
     phases ABCN; 
     from R5-12-47-2_node_30; 
     to R5-12-47-2_node_185; 
     current_limit 25; 
     status CLOSED; 
} 

object fuse:1529 { 
     name R5-12-47-2_fuse_28; 
     phases ABCN; 
     from R5-12-47-2_node_4; 
     to R5-12-47-2_node_180; 
     current_limit 15; 
     status CLOSED; 
} 

object fuse:1530 { 
     name R5-12-47-2_fuse_29; 
     phases ABCN; 
     from R5-12-47-2_node_29; 
     to R5-12-47-2_node_192; 
     current_limit 25; 
     status CLOSED; 
} 

object fuse:1531 { 
     name R5-12-47-2_fuse_30; 
     phases ABCN; 
     from R5-12-47-2_node_30; 
     to R5-12-47-2_node_190; 
     current_limit 25; 
     status CLOSED; 
} 

object fuse:1532 { 
     name R5-12-47-2_fuse_31; 
     phases ABCN; 
     from R5-12-47-2_node_3; 
     to R5-12-47-2_node_194; 
     current_limit 100; 
     status CLOSED; 
} 

object fuse:1533 { 
     name R5-12-47-2_fuse_32; 
     phases CN; 
     from R5-12-47-2_node_2; 
     to R5-12-47-2_node_193; 
     current_limit 10; 
     status CLOSED; 
} 

object fuse:1534 { 
     name R5-12-47-2_fuse_33; 
     phases CN; 
     from R5-12-47-2_node_32; 
     to R5-12-47-2_node_181; 
     current_limit 6; 
     status CLOSED; 
} 

object fuse:1535 { 
     name R5-12-47-2_fuse_34; 
     phases ABCN; 
     from R5-12-47-2_node_210; 
     to R5-12-47-2_node_187; 
     current_limit 200; 
     status CLOSED; 
} 

object fuse:1536 { 
     name R5-12-47-2_fuse_35; 
     phases ABCN; 
     from R5-12-47-2_node_293; 
     to R5-12-47-2_node_201; 
     current_limit 200; 
     status CLOSED; 
} 

object line_configuration:23 { 
     conductor_A overhead_line_conductor:2; 
     conductor_B overhead_line_conductor:2; 
     conductor_C overhead_line_conductor:2; 
     conductor_N overhead_line_conductor:2; 
     spacing line_spacing:14; 
} 

object line_configuration:24 { 
     conductor_C overhead_line_conductor:2; 
     conductor_N overhead_line_conductor:2; 
     spacing line_spacing:15; 
} 

object line_configuration:25 { 
     conductor_A overhead_line_conductor:2; 
     conductor_N overhead_line_conductor:2; 
     spacing line_spacing:16; 
} 

object line_configuration:26 { 
     conductor_A overhead_line_conductor:3; 
     conductor_B overhead_line_conductor:3; 
     conductor_C overhead_line_conductor:3; 
     conductor_N overhead_line_conductor:3; 
     spacing line_spacing:17; 
} 

object line_configuration:27 { 
     conductor_A overhead_line_conductor:4; 
     conductor_B overhead_line_conductor:4; 
     conductor_N overhead_line_conductor:4; 
     spacing line_spacing:18; 
} 

object line_configuration:28 { 
     conductor_A overhead_line_conductor:5; 
     conductor_B overhead_line_conductor:5; 
     conductor_C overhead_line_conductor:5; 
     conductor_N overhead_line_conductor:5; 
     spacing line_spacing:17; 
} 

object line_configuration:29 { 
     conductor_A overhead_line_conductor:3; 
     conductor_N overhead_line_conductor:3; 
     spacing line_spacing:19; 
} 

object line_configuration:30 { 
     conductor_A overhead_line_conductor:4; 
     conductor_B overhead_line_conductor:4; 
     conductor_C overhead_line_conductor:4; 
     conductor_N overhead_line_conductor:4; 
     spacing line_spacing:17; 
} 

object line_configuration:31 { 
     conductor_A overhead_line_conductor:6; 
     conductor_B overhead_line_conductor:6; 
     conductor_C overhead_line_conductor:6; 
     conductor_N overhead_line_conductor:6; 
     spacing line_spacing:17; 
} 

object line_configuration:32 { 
     conductor_A overhead_line_conductor:7; 
     conductor_C overhead_line_conductor:7; 
     conductor_N overhead_line_conductor:7; 
     spacing line_spacing:20; 
} 

object line_configuration:33 { 
     conductor_A overhead_line_conductor:6; 
     conductor_B overhead_line_conductor:6; 
     conductor_C overhead_line_conductor:6; 
     conductor_N overhead_line_conductor:6; 
     spacing line_spacing:17; 
} 

object line_configuration:34 { 
     conductor_A overhead_line_conductor:6; 
     conductor_C overhead_line_conductor:6; 
     conductor_N overhead_line_conductor:6; 
     spacing line_spacing:20; 
} 

object line_configuration:35 { 
     conductor_C overhead_line_conductor:3; 
     conductor_N overhead_line_conductor:3; 
     spacing line_spacing:21; 
} 

object line_configuration:36 { 
     conductor_A overhead_line_conductor:8; 
     conductor_B overhead_line_conductor:8; 
     conductor_C overhead_line_conductor:8; 
     conductor_N overhead_line_conductor:8; 
     spacing line_spacing:17; 
} 

object line_configuration:37 { 
     conductor_B overhead_line_conductor:3; 
     conductor_N overhead_line_conductor:3; 
     spacing line_spacing:22; 
} 

object line_configuration:38 { 
     conductor_A overhead_line_conductor:6; 
     conductor_C overhead_line_conductor:6; 
     conductor_N overhead_line_conductor:6; 
     spacing line_spacing:20; 
} 

object line_configuration:39 { 
     conductor_B overhead_line_conductor:6; 
     conductor_N overhead_line_conductor:6; 
     spacing line_spacing:22; 
} 

object line_configuration:40 { 
     conductor_C overhead_line_conductor:7; 
     conductor_N overhead_line_conductor:7; 
     spacing line_spacing:21; 
} 

object line_configuration:41 { 
     conductor_A overhead_line_conductor:3; 
     conductor_B overhead_line_conductor:3; 
     conductor_N overhead_line_conductor:3; 
     spacing line_spacing:18; 
} 

object line_configuration:42 { 
     conductor_A overhead_line_conductor:4; 
     conductor_C overhead_line_conductor:4; 
     conductor_N overhead_line_conductor:4; 
     spacing line_spacing:20; 
} 

object line_configuration:43 { 
     conductor_B overhead_line_conductor:4; 
     conductor_N overhead_line_conductor:4; 
     spacing line_spacing:22; 
} 

object line_configuration:44 { 
     conductor_C overhead_line_conductor:4; 
     conductor_N overhead_line_conductor:4; 
     spacing line_spacing:21; 
} 

object line_configuration:45 { 
     conductor_A overhead_line_conductor:4; 
     conductor_B overhead_line_conductor:4; 
     conductor_C overhead_line_conductor:4; 
     conductor_N overhead_line_conductor:4; 
     spacing line_spacing:17; 
} 

object line_configuration:46 { 
     conductor_A underground_line_conductor:9; 
     conductor_B underground_line_conductor:9; 
     conductor_C underground_line_conductor:9; 
     conductor_N underground_line_conductor:9; 
     spacing line_spacing:17; 
} 

object line_configuration:47 { 
     conductor_A underground_line_conductor:10; 
     conductor_B underground_line_conductor:10; 
     conductor_C underground_line_conductor:10; 
     conductor_N underground_line_conductor:10; 
     spacing line_spacing:17; 
} 

object line_configuration:48 { 
     conductor_A underground_line_conductor:9; 
     conductor_N underground_line_conductor:9; 
     spacing line_spacing:19; 
} 

object line_configuration:49 { 
     conductor_A underground_line_conductor:11; 
     conductor_B underground_line_conductor:11; 
     conductor_C underground_line_conductor:11; 
     conductor_N underground_line_conductor:11; 
     spacing line_spacing:17; 
} 

object line_configuration:50 { 
     conductor_A underground_line_conductor:12; 
     conductor_B underground_line_conductor:12; 
     conductor_C underground_line_conductor:12; 
     conductor_N underground_line_conductor:12; 
     spacing line_spacing:17; 
} 

object line_configuration:51 { 
     conductor_C underground_line_conductor:9; 
     conductor_N underground_line_conductor:9; 
     spacing line_spacing:21; 
} 

object line_spacing:14 { 
     distance_AB 48.0 in; 
     distance_BC 48.0 in; 
     distance_AC 48.0 in; 
     distance_AN 36.0 in; 
     distance_BN 36.0 in; 
     distance_CN 36.0 in; 
} 

object line_spacing:15 { 
     distance_CN 36.0 in; 
} 

object line_spacing:16 { 
     distance_AN 36.0 in; 
} 

object line_spacing:17 { 
     distance_AB 36.0 in; 
     distance_BC 36.0 in; 
     distance_AC 36.0 in; 
     distance_AN 48.0 in; 
     distance_BN 48.0 in; 
     distance_CN 48.0 in; 
} 

object line_spacing:18 { 
     distance_AB 36.0 in; 
     distance_AN 48.0 in; 
     distance_BN 48.0 in; 
} 

object line_spacing:19 { 
     distance_AN 48.0 in; 
} 

object line_spacing:20 { 
     distance_AC 36.0 in; 
     distance_AN 48.0 in; 
     distance_CN 48.0 in; 
} 

object line_spacing:21 { 
     distance_CN 48.0 in; 
} 

object line_spacing:22 { 
     distance_BN 48.0 in; 
} 

object load:368 { 
     name R5-12-47-2_load_1; 
     parent R5-12-47-2_meter_1; 
     phases ABCN; 
     voltage_A 7200+0.0j; 
     voltage_B -3600-6235j; 
     voltage_C -3600+6235j; 
     constant_power_A 25651.9067+13683.3008j; 
     constant_power_B 24631.8987+13026.7417j; 
     constant_power_C 25222.3979+13340.455j; 
     nominal_voltage 7200; 
     load_class C; 
} 

object load:369 { 
     name R5-12-47-2_load_2; 
     parent R5-12-47-2_meter_2; 
     phases ABCN; 
     voltage_A 7200+0.0j; 
     voltage_B -3600-6235j; 
     voltage_C -3600+6235j; 
     constant_power_A 12825.9534+6841.6504j; 
     constant_power_B 12315.9494+6513.3709j; 
     constant_power_C 12611.199+6670.2275j; 
     nominal_voltage 7200; 
     load_class C; 
} 

object load:370 { 
     name R5-12-47-2_load_3; 
     parent R5-12-47-2_meter_3; 
     phases ABCN; 
     voltage_A 7200+0.0j; 
     voltage_B -3600-6235j; 
     voltage_C -3600+6235j; 
     constant_power_A 12825.9534+6841.6504j; 
     constant_power_B 12315.9494+6513.3709j; 
     constant_power_C 12611.199+6670.2275j; 
     nominal_voltage 7200; 
     load_class C; 
} 

object load:371 { 
     name R5-12-47-2_load_4; 
     parent R5-12-47-2_meter_4; 
     phases ABCN; 
     voltage_A 7200+0.0j; 
     voltage_B -3600-6235j; 
     voltage_C -3600+6235j; 
     constant_power_A 12825.9534+6841.6504j; 
     constant_power_B 12315.9494+6513.3709j; 
     constant_power_C 12611.199+6670.2275j; 
     nominal_voltage 7200; 
     load_class C; 
} 

object load:372 { 
     name R5-12-47-2_load_5; 
     parent R5-12-47-2_meter_5; 
     phases ABCN; 
     voltage_A 7200+0.0j; 
     voltage_B -3600-6235j; 
     voltage_C -3600+6235j; 
     constant_power_A 25651.9067+13683.3008j; 
     constant_power_B 24631.8987+13026.7417j; 
     constant_power_C 25222.3979+13340.455j; 
     nominal_voltage 7200; 
     load_class C; 
} 

object load:373 { 
     name R5-12-47-2_load_6; 
     parent R5-12-47-2_meter_6; 
     phases ABCN; 
     voltage_A 7200+0.0j; 
     voltage_B -3600-6235j; 
     voltage_C -3600+6235j; 
     constant_power_A 42753.1778+22805.5014j; 
     constant_power_B 41053.1645+21711.2362j; 
     constant_power_C 42037.3299+22234.0917j; 
     nominal_voltage 7200; 
     load_class C; 
} 

object load:374 { 
     name R5-12-47-2_load_7; 
     parent R5-12-47-2_meter_7; 
     phases ABCN; 
     voltage_A 7200+0.0j; 
     voltage_B -3600-6235j; 
     voltage_C -3600+6235j; 
     constant_power_A 42753.1778+22805.5014j; 
     constant_power_B 41053.1645+21711.2362j; 
     constant_power_C 42037.3299+22234.0917j; 
     nominal_voltage 7200; 
     load_class C; 
} 

object load:375 { 
     name R5-12-47-2_load_8; 
     parent R5-12-47-2_meter_8; 
     phases ABCN; 
     voltage_A 7200+0.0j; 
     voltage_B -3600-6235j; 
     voltage_C -3600+6235j; 
     constant_power_A 128259.5335+68416.5041j; 
     constant_power_B 123159.4936+65133.7086j; 
     constant_power_C 126111.9897+66702.2751j; 
     nominal_voltage 7200; 
     load_class C; 
} 

object load:376 { 
     name R5-12-47-2_load_9; 
     parent R5-12-47-2_meter_9; 
     phases ABCN; 
     voltage_A 7200+0.0j; 
     voltage_B -3600-6235j; 
     voltage_C -3600+6235j; 
     constant_power_A 12825.9534+6841.6504j; 
     constant_power_B 12315.9494+6513.3709j; 
     constant_power_C 12611.199+6670.2275j; 
     nominal_voltage 7200; 
     load_class C; 
} 

object load:377 { 
     name R5-12-47-2_load_10; 
     parent R5-12-47-2_meter_10; 
     phases ABCN; 
     voltage_A 7200+0.0j; 
     voltage_B -3600-6235j; 
     voltage_C -3600+6235j; 
     constant_power_A 12825.9534+6841.6504j; 
     constant_power_B 12315.9494+6513.3709j; 
     constant_power_C 12611.199+6670.2275j; 
     nominal_voltage 7200; 
     load_class C; 
} 

object load:378 { 
     name R5-12-47-2_load_11; 
     parent R5-12-47-2_meter_11; 
     phases ABCN; 
     voltage_A 7200+0.0j; 
     voltage_B -3600-6235j; 
     voltage_C -3600+6235j; 
     constant_power_A 12825.9534+6841.6504j; 
     constant_power_B 12315.9494+6513.3709j; 
     constant_power_C 12611.199+6670.2275j; 
     nominal_voltage 7200; 
     load_class C; 
} 

object load:379 { 
     name R5-12-47-2_load_12; 
     parent R5-12-47-2_meter_12; 
     phases ABCN; 
     voltage_A 7200+0.0j; 
     voltage_B -3600-6235j; 
     voltage_C -3600+6235j; 
     constant_power_A 85506.3557+45611.0028j; 
     constant_power_B 82106.3291+43422.4724j; 
     constant_power_C 84074.6598+44468.1834j; 
     nominal_voltage 7200; 
     load_class C;
	// object recorder {
		// property voltage_A,voltage_B,voltage_C;
		// interval 60;
		// limit 1440;
		// file "379.csv";
	// }; 
	object complex_assert{
		once ONCE_TRUE;
		in '2000-01-01 00:04:00 EST';
		target voltage_A;
		value +280.898-1.23972j;
		within 1;
	};
	object complex_assert{
		once ONCE_TRUE;
		in '2000-01-01 00:04:00 EST';
		target voltage_B;
		value -142.436-242.654j;
		within 1;
	};
	object complex_assert{
		once ONCE_TRUE;
		in '2000-01-01 00:04:00 EST';
		target voltage_C;
		value -139.327+244.088j;
		within 1;
	};	 
} 

object load:380 { 
     name R5-12-47-2_load_13; 
     parent R5-12-47-2_meter_13; 
     phases ABCN; 
     voltage_A 7200+0.0j; 
     voltage_B -3600-6235j; 
     voltage_C -3600+6235j; 
     constant_power_A 25651.9067+13683.3008j; 
     constant_power_B 24631.8987+13026.7417j; 
     constant_power_C 25222.3979+13340.455j; 
     nominal_voltage 7200; 
     load_class C; 
} 

object load:381 { 
     name R5-12-47-2_load_14; 
     parent R5-12-47-2_meter_14; 
     phases AN; 
     voltage_A 7200+0.0j; 
     constant_power_A 6412.9767+3420.8252j; 
     nominal_voltage 7200; 
     load_class C; 
} 

object load:382 { 
     name R5-12-47-2_load_15; 
     parent R5-12-47-2_meter_15; 
     phases ABCN; 
     voltage_A 7200+0.0j; 
     voltage_B -3600-6235j; 
     voltage_C -3600+6235j; 
     constant_power_A 213765.8892+114027.5069j; 
     constant_power_B 205265.8226+108556.181j; 
     constant_power_C 210186.6495+111170.4584j; 
     nominal_voltage 7200; 
     load_class C; 
} 

object load:383 { 
     name R5-12-47-2_load_16; 
     parent R5-12-47-2_meter_16; 
     phases ABCN; 
     voltage_A 7200+0.0j; 
     voltage_B -3600-6235j; 
     voltage_C -3600+6235j; 
     constant_power_A 213765.8892+114027.5069j; 
     constant_power_B 205265.8226+108556.181j; 
     constant_power_C 210186.6495+111170.4584j; 
     nominal_voltage 7200; 
     load_class C; 
} 

object load:384 { 
     name R5-12-47-2_load_17; 
     parent R5-12-47-2_meter_17; 
     phases ABCN; 
     voltage_A 7200+0.0j; 
     voltage_B -3600-6235j; 
     voltage_C -3600+6235j; 
     constant_power_A 12825.9534+6841.6504j; 
     constant_power_B 12315.9494+6513.3709j; 
     constant_power_C 12611.199+6670.2275j; 
     nominal_voltage 7200; 
     load_class C; 
} 

object load:385 { 
     name R5-12-47-2_load_18; 
     parent R5-12-47-2_meter_18; 
     phases ABCN; 
     voltage_A 7200+0.0j; 
     voltage_B -3600-6235j; 
     voltage_C -3600+6235j; 
     constant_power_A 6412.9767+3420.8252j; 
     constant_power_B 6157.9747+3256.6854j; 
     constant_power_C 6305.5995+3335.1138j; 
     nominal_voltage 7200; 
     load_class C; 
} 

object load:386 { 
     name R5-12-47-2_load_19; 
     parent R5-12-47-2_meter_19; 
     phases AN; 
     voltage_A 7200+0.0j; 
     constant_power_A 25651.9067+13683.3008j; 
     nominal_voltage 7200; 
     load_class C; 
} 

object load:387 { 
     name R5-12-47-2_load_20; 
     parent R5-12-47-2_meter_20; 
     phases AN; 
     voltage_A 7200+0.0j; 
     constant_power_A 6412.9767+3420.8252j; 
     nominal_voltage 7200; 
     load_class C; 
} 

object load:388 { 
     name R5-12-47-2_load_21; 
     parent R5-12-47-2_meter_21; 
     phases ABCN; 
     voltage_A 7200+0.0j; 
     voltage_B -3600-6235j; 
     voltage_C -3600+6235j; 
     constant_power_A 6412.9767+3420.8252j; 
     constant_power_B 6157.9747+3256.6854j; 
     constant_power_C 6305.5995+3335.1138j; 
     nominal_voltage 7200; 
     load_class C; 
} 

object load:389 { 
     name R5-12-47-2_load_22; 
     parent R5-12-47-2_meter_22; 
     phases ABN; 
     voltage_A 7200+0.0j; 
     voltage_B -3600-6235j; 
     constant_power_A 0+0j; 
     constant_power_B 12315.9494+6513.3709j; 
     nominal_voltage 7200; 
     load_class C; 
} 

object load:390 { 
     name R5-12-47-2_load_23; 
     parent R5-12-47-2_meter_23; 
     phases ABCN; 
     voltage_A 7200+0.0j; 
     voltage_B -3600-6235j; 
     voltage_C -3600+6235j; 
     constant_power_A 0+0j; 
     constant_power_B 6157.9747+3256.6854j; 
     constant_power_C 0+0j; 
     nominal_voltage 7200; 
     load_class C; 
} 

object load:391 { 
     name R5-12-47-2_load_24; 
     parent R5-12-47-2_meter_24; 
     phases AN; 
     voltage_A 7200+0.0j; 
     constant_power_A 12825.9534+6841.6504j; 
     nominal_voltage 7200; 
     load_class C; 
} 

object load:392 { 
     name R5-12-47-2_load_25; 
     parent R5-12-47-2_meter_25; 
     phases ABCN; 
     voltage_A 7200+0.0j; 
     voltage_B -3600-6235j; 
     voltage_C -3600+6235j; 
     constant_power_A 9619.465+5131.2378j; 
     constant_power_B 0+0j; 
     constant_power_C 9458.3992+5002.6706j; 
     nominal_voltage 7200; 
     load_class C; 
} 

object load:393 { 
     name R5-12-47-2_load_26; 
     parent R5-12-47-2_meter_26; 
     phases ABCN; 
     voltage_A 7200+0.0j; 
     voltage_B -3600-6235j; 
     voltage_C -3600+6235j; 
     constant_power_A 5985.4449+3192.7702j; 
     constant_power_B 5747.443+3039.5731j; 
     constant_power_C 5885.2262+3112.7728j; 
     nominal_voltage 7200; 
     load_class C; 
} 

object load:394 { 
     name R5-12-47-2_load_27; 
     parent R5-12-47-2_meter_27; 
     phases ACN; 
     voltage_A 7200+0.0j; 
     voltage_C -3600+6235j; 
     constant_power_A 9619.465+5131.2378j; 
     constant_power_C 9458.3992+5002.6706j; 
     nominal_voltage 7200; 
     load_class C; 
} 

object load:395 { 
     name R5-12-47-2_load_28; 
     parent R5-12-47-2_meter_28; 
     phases ABCN; 
     voltage_A 7200+0.0j; 
     voltage_B -3600-6235j; 
     voltage_C -3600+6235j; 
     constant_power_A 19238.93+10262.4756j; 
     constant_power_B 18473.924+9770.0563j; 
     constant_power_C 0+0j; 
     nominal_voltage 7200; 
     load_class C; 
} 

object load:396 { 
     name R5-12-47-2_load_29; 
     parent R5-12-47-2_meter_29; 
     phases ABCN; 
     voltage_A 7200+0.0j; 
     voltage_B -3600-6235j; 
     voltage_C -3600+6235j; 
     constant_power_A 6412.9767+3420.8252j; 
     constant_power_B 6157.9747+3256.6854j; 
     constant_power_C 6305.5995+3335.1138j; 
     nominal_voltage 7200; 
     load_class C; 
} 

object load:397 { 
     name R5-12-47-2_load_30; 
     parent R5-12-47-2_meter_30; 
     phases ABCN; 
     voltage_A 7200+0.0j; 
     voltage_B -3600-6235j; 
     voltage_C -3600+6235j; 
     constant_power_A 25651.9067+13683.3008j; 
     constant_power_B 24631.8987+13026.7417j; 
     constant_power_C 25222.3979+13340.455j; 
     nominal_voltage 7200; 
     load_class C; 
} 

object load:398 { 
     name R5-12-47-2_load_31; 
     parent R5-12-47-2_meter_31; 
     phases ABCN; 
     voltage_A 7200+0.0j; 
     voltage_B -3600-6235j; 
     voltage_C -3600+6235j; 
     constant_power_A 0+0j; 
     constant_power_B 0+0j; 
     constant_power_C 6305.5995+3335.1138j; 
     nominal_voltage 7200; 
     load_class C; 
} 

object load:399 { 
     name R5-12-47-2_load_32; 
     parent R5-12-47-2_meter_32; 
     phases ABN; 
     voltage_A 7200+0.0j; 
     voltage_B -3600-6235j; 
     constant_power_A 2565.1907+1368.3301j; 
     constant_power_B 2463.1899+1302.6742j; 
     nominal_voltage 7200; 
     load_class C; 
} 

object load:400 { 
     name R5-12-47-2_load_33; 
     parent R5-12-47-2_meter_33; 
     phases ABCN; 
     voltage_A 7200+0.0j; 
     voltage_B -3600-6235j; 
     voltage_C -3600+6235j; 
     constant_power_A 0+0j; 
     constant_power_B 0+0j; 
     constant_power_C 3783.3597+2001.0683j; 
     nominal_voltage 7200; 
     load_class C; 
} 

object load:401 { 
     name R5-12-47-2_load_34; 
     parent R5-12-47-2_meter_34; 
     phases ABCN; 
     voltage_A 7200+0.0j; 
     voltage_B -3600-6235j; 
     voltage_C -3600+6235j; 
     constant_power_A 6412.9767+3420.8252j; 
     constant_power_B 6157.9747+3256.6854j; 
     constant_power_C 6305.5995+3335.1138j; 
     nominal_voltage 7200; 
     load_class C; 
} 

object load:402 { 
     name R5-12-47-2_load_35; 
     parent R5-12-47-2_meter_35; 
     phases ABCN; 
     voltage_A 7200+0.0j; 
     voltage_B -3600-6235j; 
     voltage_C -3600+6235j; 
     constant_power_A 0+0j; 
     constant_power_B 0+0j; 
     constant_power_C 6305.5995+3335.1138j; 
     nominal_voltage 7200; 
     load_class C; 
} 

object load:403 { 
     name R5-12-47-2_load_36; 
     parent R5-12-47-2_meter_36; 
     phases ABCN; 
     voltage_A 7200+0.0j; 
     voltage_B -3600-6235j; 
     voltage_C -3600+6235j; 
     constant_power_A 6412.9767+3420.8252j; 
     constant_power_B 0+0j; 
     constant_power_C 0+0j; 
     nominal_voltage 7200; 
     load_class C;
	// object recorder {
		// property voltage_A,voltage_B,voltage_C;
		// interval 60;
		// limit 1440;
		// file "403.csv";
	// }; //@off by 10
	object complex_assert{
		once ONCE_TRUE;
		in '2000-01-01 00:04:00 EST';
		target voltage_A;
		value +275.659-5.98588j;
		within 1;
	};
	object complex_assert{
		once ONCE_TRUE;
		in '2000-01-01 00:06:00 EST';
		target voltage_B;
		value -142.746-240.653j;
		within 1;
	};
	object complex_assert{
		once ONCE_TRUE;
		in '2000-01-01 00:04:00 EST';
		target voltage_C;
		value -137.549+242.793j;
		within 1;
	};	 
} 

object load:404 { 
     name R5-12-47-2_load_37; 
     parent R5-12-47-2_meter_37; 
     phases BN; 
     voltage_B -3600-6235j; 
     constant_power_B 12315.9494+6513.3709j; 
     nominal_voltage 7200; 
     load_class C; 
} 

object load:405 { 
     name R5-12-47-2_load_38; 
     parent R5-12-47-2_meter_38; 
     phases ABCN; 
     voltage_A 7200+0.0j; 
     voltage_B -3600-6235j; 
     voltage_C -3600+6235j; 
     constant_power_A 12825.9534+6841.6504j; 
     constant_power_B 12315.9494+6513.3709j; 
     constant_power_C 12611.199+6670.2275j; 
     nominal_voltage 7200; 
     load_class C; 
} 

object load:406 { 
     name R5-12-47-2_load_39; 
     parent R5-12-47-2_meter_39; 
     phases ABCN; 
     voltage_A 7200+0.0j; 
     voltage_B -3600-6235j; 
     voltage_C -3600+6235j; 
     constant_power_A 0+0j; 
     constant_power_B 9236.962+4885.0281j; 
     constant_power_C 9458.3992+5002.6706j; 
     nominal_voltage 7200; 
     load_class C; 
} 

object load:407 { 
     name R5-12-47-2_load_40; 
     parent R5-12-47-2_meter_40; 
     phases ABCN; 
     voltage_A 7200+0.0j; 
     voltage_B -3600-6235j; 
     voltage_C -3600+6235j; 
     constant_power_A 8550.6356+4561.1003j; 
     constant_power_B 8210.6329+4342.2472j; 
     constant_power_C 8407.466+4446.8183j; 
     nominal_voltage 7200; 
     load_class C; 
} 

object load:408 { 
     name R5-12-47-2_load_41; 
     parent R5-12-47-2_meter_41; 
     phases ABN; 
     voltage_A 7200+0.0j; 
     voltage_B -3600-6235j; 
     constant_power_A 0+0j; 
     constant_power_B 12315.9494+6513.3709j; 
     nominal_voltage 7200; 
     load_class C; 
} 

object load:409 { 
     name R5-12-47-2_load_42; 
     parent R5-12-47-2_meter_42; 
     phases ABN; 
     voltage_A 7200+0.0j; 
     voltage_B -3600-6235j; 
     constant_power_A 0+0j; 
     constant_power_B 6157.9747+3256.6854j; 
     nominal_voltage 7200; 
     load_class C; 
} 

object load:410 { 
     name R5-12-47-2_load_43; 
     parent R5-12-47-2_meter_43; 
     phases ABCN; 
     voltage_A 7200+0.0j; 
     voltage_B -3600-6235j; 
     voltage_C -3600+6235j; 
     constant_power_A 5130.3813+2736.6602j; 
     constant_power_B 0+0j; 
     constant_power_C 5044.4796+2668.091j; 
     nominal_voltage 7200; 
     load_class C; 
} 

object load:411 { 
     name R5-12-47-2_load_44; 
     parent R5-12-47-2_meter_44; 
     phases ABN; 
     voltage_A 7200+0.0j; 
     voltage_B -3600-6235j; 
     constant_power_A 9619.465+5131.2378j; 
     constant_power_B 9236.962+4885.0281j; 
     nominal_voltage 7200; 
     load_class C; 
} 

object load:412 { 
     name R5-12-47-2_load_45; 
     parent R5-12-47-2_meter_45; 
     phases ABN; 
     voltage_A 7200+0.0j; 
     voltage_B -3600-6235j; 
     constant_power_A 0+0j; 
     constant_power_B 12315.9494+6513.3709j; 
     nominal_voltage 7200; 
     load_class C; 
} 

object load:413 { 
     name R5-12-47-2_load_46; 
     parent R5-12-47-2_meter_46; 
     phases ABCN; 
     voltage_A 7200+0.0j; 
     voltage_B -3600-6235j; 
     voltage_C -3600+6235j; 
     constant_power_A 12825.9534+6841.6504j; 
     constant_power_B 12315.9494+6513.3709j; 
     constant_power_C 12611.199+6670.2275j; 
     nominal_voltage 7200; 
     load_class C;
	// object recorder {
		// property voltage_A,voltage_B,voltage_C;
		// interval 60;
		// limit 1440;
		// file "413.csv";
	// }; //@off by 10
	object complex_assert{
		once ONCE_TRUE;
		in '2000-01-01 00:04:00 EST';
		target voltage_A;
		value +278.92-2.4159j;
		within 1;
	};
	object complex_assert{
		once ONCE_TRUE;
		in '2000-01-01 00:04:00 EST';
		target voltage_B;
		value -142.918-240.586j;
		within 1;
	};
	object complex_assert{
		once ONCE_TRUE;
		in '2000-01-01 00:04:00 EST';
		target voltage_C;
		value -137.394+242.913j;
		within 1;
	};	 
} 

object meter:828 { 
     name R5-12-47-2_meter_1; 
     phases ABCN; 
     voltage_A 7200+0.0j; 
     voltage_B -3600-6235j; 
     voltage_C -3600+6235j; 
     nominal_voltage 7200; 
} 

object meter:829 { 
     name R5-12-47-2_meter_2; 
     phases ABCN; 
     voltage_A 7200+0.0j; 
     voltage_B -3600-6235j; 
     voltage_C -3600+6235j; 
     nominal_voltage 7200; 
} 

object meter:830 { 
     name R5-12-47-2_meter_3; 
     phases ABCN; 
     voltage_A 7200+0.0j; 
     voltage_B -3600-6235j; 
     voltage_C -3600+6235j; 
     nominal_voltage 7200; 
} 

object meter:831 { 
     name R5-12-47-2_meter_4; 
     phases ABCN; 
     voltage_A 7200+0.0j; 
     voltage_B -3600-6235j; 
     voltage_C -3600+6235j; 
     nominal_voltage 7200; 
} 

object meter:832 { 
     name R5-12-47-2_meter_5; 
     phases ABCN; 
     voltage_A 7200+0.0j; 
     voltage_B -3600-6235j; 
     voltage_C -3600+6235j; 
     nominal_voltage 7200; 
} 

object meter:833 { 
     name R5-12-47-2_meter_6; 
     phases ABCN; 
     voltage_A 7200+0.0j; 
     voltage_B -3600-6235j; 
     voltage_C -3600+6235j; 
     nominal_voltage 7200; 
} 

object meter:834 { 
     name R5-12-47-2_meter_7; 
     phases ABCN; 
     voltage_A 7200+0.0j; 
     voltage_B -3600-6235j; 
     voltage_C -3600+6235j; 
     nominal_voltage 7200; 
} 

object meter:835 { 
     name R5-12-47-2_meter_8; 
     phases ABCN; 
     voltage_A 7200+0.0j; 
     voltage_B -3600-6235j; 
     voltage_C -3600+6235j; 
     nominal_voltage 7200; 
} 

object meter:836 { 
     name R5-12-47-2_meter_9; 
     phases ABCN; 
     voltage_A 7200+0.0j; 
     voltage_B -3600-6235j; 
     voltage_C -3600+6235j; 
     nominal_voltage 7200; 
} 

object meter:837 { 
     name R5-12-47-2_meter_10; 
     phases ABCN; 
     voltage_A 7200+0.0j; 
     voltage_B -3600-6235j; 
     voltage_C -3600+6235j; 
     nominal_voltage 7200; 
} 

object meter:838 { 
     name R5-12-47-2_meter_11; 
     phases ABCN; 
     voltage_A 7200+0.0j; 
     voltage_B -3600-6235j; 
     voltage_C -3600+6235j; 
     nominal_voltage 7200;
	// object recorder {
		// property voltage_A,voltage_B,voltage_C;
		// interval 60;
		// limit 1440;
		// file "838.csv";
	// }; 
	object complex_assert{
		once ONCE_TRUE;
		in '2000-01-01 00:03:00 EST';
		target voltage_A;
		value +279.489-1.87478j;
		within 1;
	};
	object complex_assert{
		target voltage_B;
		once ONCE_TRUE;
		in '2000-01-01 00:03:00 EST';
		value -142.631-241.188j;
		within 1;
	};
	object complex_assert{
		target voltage_C;
		once ONCE_TRUE;
		in '2000-01-01 00:03:00 EST';
		value -138.103+243.194j;
		within 1;
	};	 
} 

object meter:839 { 
     name R5-12-47-2_meter_12; 
     phases ABCN; 
     voltage_A 7200+0.0j; 
     voltage_B -3600-6235j; 
     voltage_C -3600+6235j; 
     nominal_voltage 7200; 
} 

object meter:840 { 
     name R5-12-47-2_meter_13; 
     phases ABCN; 
     voltage_A 7200+0.0j; 
     voltage_B -3600-6235j; 
     voltage_C -3600+6235j; 
     nominal_voltage 7200; 
} 

object meter:841 { 
     name R5-12-47-2_meter_14; 
     phases AN; 
     voltage_A 7200+0.0j; 
     nominal_voltage 7200; 
} 

object meter:842 { 
     name R5-12-47-2_meter_15; 
     phases ABCN; 
     voltage_A 7200+0.0j; 
     voltage_B -3600-6235j; 
     voltage_C -3600+6235j; 
     nominal_voltage 7200; 
} 

object meter:843 { 
     name R5-12-47-2_meter_16; 
     phases ABCN; 
     voltage_A 7200+0.0j; 
     voltage_B -3600-6235j; 
     voltage_C -3600+6235j; 
     nominal_voltage 7200; 
} 

object meter:844 { 
     name R5-12-47-2_meter_17; 
     phases ABCN; 
     voltage_A 7200+0.0j; 
     voltage_B -3600-6235j; 
     voltage_C -3600+6235j; 
     nominal_voltage 7200; 
} 

object meter:845 { 
     name R5-12-47-2_meter_18; 
     phases ABCN; 
     voltage_A 7200+0.0j; 
     voltage_B -3600-6235j; 
     voltage_C -3600+6235j; 
     nominal_voltage 7200; 
} 

object meter:846 { 
     name R5-12-47-2_meter_19; 
     phases AN; 
     voltage_A 7200+0.0j; 
     nominal_voltage 7200; 
} 

object meter:847 { 
     name R5-12-47-2_meter_20; 
     phases AN; 
     voltage_A 7200+0.0j; 
     nominal_voltage 7200; 
} 

object meter:848 { 
     name R5-12-47-2_meter_21; 
     phases ABCN; 
     voltage_A 7200+0.0j; 
     voltage_B -3600-6235j; 
     voltage_C -3600+6235j; 
     nominal_voltage 7200; 
} 

object meter:849 { 
     name R5-12-47-2_meter_22; 
     phases ABN; 
     voltage_A 7200+0.0j; 
     voltage_B -3600-6235j; 
     nominal_voltage 7200; 
} 

object meter:850 { 
     name R5-12-47-2_meter_23; 
     phases ABCN; 
     voltage_A 7200+0.0j; 
     voltage_B -3600-6235j; 
     voltage_C -3600+6235j; 
     nominal_voltage 7200; 
} 

object meter:851 { 
     name R5-12-47-2_meter_24; 
     phases AN; 
     voltage_A 7200+0.0j; 
     nominal_voltage 7200; 
} 

object meter:852 { 
     name R5-12-47-2_meter_25; 
     phases ABCN; 
     voltage_A 7200+0.0j; 
     voltage_B -3600-6235j; 
     voltage_C -3600+6235j; 
     nominal_voltage 7200; 
} 

object meter:853 { 
     name R5-12-47-2_meter_26; 
     phases ABCN; 
     voltage_A 7200+0.0j; 
     voltage_B -3600-6235j; 
     voltage_C -3600+6235j; 
     nominal_voltage 7200; 
} 

object meter:854 { 
     name R5-12-47-2_meter_27; 
     phases ACN; 
     voltage_A 7200+0.0j; 
     voltage_C -3600+6235j; 
     nominal_voltage 7200; 
} 

object meter:855 { 
     name R5-12-47-2_meter_28; 
     phases ABCN; 
     voltage_A 7200+0.0j; 
     voltage_B -3600-6235j; 
     voltage_C -3600+6235j; 
     nominal_voltage 7200; 
} 

object meter:856 { 
     name R5-12-47-2_meter_29; 
     phases ABCN; 
     voltage_A 7200+0.0j; 
     voltage_B -3600-6235j; 
     voltage_C -3600+6235j; 
     nominal_voltage 7200; 
} 

object meter:857 { 
     name R5-12-47-2_meter_30; 
     phases ABCN; 
     voltage_A 7200+0.0j; 
     voltage_B -3600-6235j; 
     voltage_C -3600+6235j; 
     nominal_voltage 7200; 
} 

object meter:858 { 
     name R5-12-47-2_meter_31; 
     phases ABCN; 
     voltage_A 7200+0.0j; 
     voltage_B -3600-6235j; 
     voltage_C -3600+6235j; 
     nominal_voltage 7200; 
} 

object meter:859 { 
     name R5-12-47-2_meter_32; 
     phases ABN; 
     voltage_A 7200+0.0j; 
     voltage_B -3600-6235j; 
     nominal_voltage 7200; 
} 

object meter:860 { 
     name R5-12-47-2_meter_33; 
     phases ABCN; 
     voltage_A 7200+0.0j; 
     voltage_B -3600-6235j; 
     voltage_C -3600+6235j; 
     nominal_voltage 7200; 
} 

object meter:861 { 
     name R5-12-47-2_meter_34; 
     phases ABCN; 
     voltage_A 7200+0.0j; 
     voltage_B -3600-6235j; 
     voltage_C -3600+6235j; 
     nominal_voltage 7200; 
} 

object meter:862 { 
     name R5-12-47-2_meter_35; 
     phases ABCN; 
     voltage_A 7200+0.0j; 
     voltage_B -3600-6235j; 
     voltage_C -3600+6235j; 
     nominal_voltage 7200; 
} 

object meter:863 { 
     name R5-12-47-2_meter_36; 
     phases ABCN; 
     voltage_A 7200+0.0j; 
     voltage_B -3600-6235j; 
     voltage_C -3600+6235j; 
     nominal_voltage 7200; 
} 

object meter:864 { 
     name R5-12-47-2_meter_37; 
     phases BN; 
     voltage_B -3600-6235j; 
     nominal_voltage 7200; 
} 

object meter:865 { 
     name R5-12-47-2_meter_38; 
     phases ABCN; 
     voltage_A 7200+0.0j; 
     voltage_B -3600-6235j; 
     voltage_C -3600+6235j; 
     nominal_voltage 7200; 
} 

object meter:866 { 
     name R5-12-47-2_meter_39; 
     phases ABCN; 
     voltage_A 7200+0.0j; 
     voltage_B -3600-6235j; 
     voltage_C -3600+6235j; 
     nominal_voltage 7200; 
} 

object meter:867 { 
     name R5-12-47-2_meter_40; 
     phases ABCN; 
     voltage_A 7200+0.0j; 
     voltage_B -3600-6235j; 
     voltage_C -3600+6235j; 
     nominal_voltage 7200; 
} 

object meter:868 { 
     name R5-12-47-2_meter_41; 
     phases ABN; 
     voltage_A 7200+0.0j; 
     voltage_B -3600-6235j; 
     nominal_voltage 7200; 
} 

object meter:869 { 
     name R5-12-47-2_meter_42; 
     phases ABN; 
     voltage_A 7200+0.0j; 
     voltage_B -3600-6235j; 
     nominal_voltage 7200; 
} 

object meter:870 { 
     name R5-12-47-2_meter_43; 
     phases ABCN; 
     voltage_A 7200+0.0j; 
     voltage_B -3600-6235j; 
     voltage_C -3600+6235j; 
     nominal_voltage 7200; 
} 

object meter:871 { 
     name R5-12-47-2_meter_44; 
     phases ABN; 
     voltage_A 7200+0.0j; 
     voltage_B -3600-6235j; 
     nominal_voltage 7200; 
} 

object meter:872 { 
     name R5-12-47-2_meter_45; 
     phases ABN; 
     voltage_A 7200+0.0j; 
     voltage_B -3600-6235j; 
     nominal_voltage 7200;
	  // object recorder {
		// property voltage_A,voltage_B,voltage_C;
		// interval 60;
		// limit 1440;
		// file "872.csv";
	// }; 
	object complex_assert{
		once ONCE_TRUE;
		in '2000-01-01 00:04:00 EST';
		target voltage_A;
		value +279.651-0.337708d;
		within 1;
	};
	object complex_assert{
		once ONCE_TRUE;
		in '2000-01-01 00:04:00 EST';
		target voltage_B;
		value -143.318-239.159j;
		within 1;
	};
	object complex_assert{
		once ONCE_TRUE;
		in '2000-01-01 00:04:00 EST';
		target voltage_C;
		value +0+0j;
		within 1;
	};	 
} 

object meter:873 { 
     name R5-12-47-2_meter_46; 
     phases ABCN; 
     voltage_A 7200+0.0j; 
     voltage_B -3600-6235j; 
     voltage_C -3600+6235j; 
     nominal_voltage 7200; 
} 

// Meter at feeder 
object meter:1561 { 
     name R5-12-47-2_meter_47; 
     phases ABCN; 
     nominal_voltage 7200; 
     voltage_A 7200+0.0j; 
     voltage_B -3600-6235j; 
     voltage_C -3600+6235j; 
} 

object node:52 { 
     name R5-12-47-2_node_1; 
     parent R5-12-47-2_meter_47; 
     phases ABCN; 
     voltage_A 7200+0.0j; 
     voltage_B -3600-6235j; 
     voltage_C -3600+6235j; 
     nominal_voltage 7200; 
} 

object node:53 { 
     name R5-12-47-2_node_2; 
     phases CN; 
     voltage_C -3600+6235j; 
     nominal_voltage 7200; 
} 

object node:54 { 
     name R5-12-47-2_node_3; 
     phases ABCN; 
     voltage_A 7200+0.0j; 
     voltage_B -3600-6235j; 
     voltage_C -3600+6235j; 
     nominal_voltage 7200; 
} 

object node:55 { 
     name R5-12-47-2_node_4; 
     phases ABCN; 
     voltage_A 7200+0.0j; 
     voltage_B -3600-6235j; 
     voltage_C -3600+6235j; 
     nominal_voltage 7200; 
} 

object node:56 { 
     name R5-12-47-2_node_5; 
     phases ABCN; 
     voltage_A 7200+0.0j; 
     voltage_B -3600-6235j; 
     voltage_C -3600+6235j; 
     nominal_voltage 7200; 
} 

object node:57 { 
     name R5-12-47-2_node_6; 
     phases ABCN; 
     voltage_A 7200+0.0j; 
     voltage_B -3600-6235j; 
     voltage_C -3600+6235j; 
     nominal_voltage 7200; 
} 

object node:58 { 
     name R5-12-47-2_node_7; 
     phases ABCN; 
     voltage_A 7200+0.0j; 
     voltage_B -3600-6235j; 
     voltage_C -3600+6235j; 
     nominal_voltage 7200; 
} 

object node:59 { 
     name R5-12-47-2_node_8; 
     phases ABCN; 
     voltage_A 7200+0.0j; 
     voltage_B -3600-6235j; 
     voltage_C -3600+6235j; 
     nominal_voltage 7200; 
} 

object node:60 { 
     name R5-12-47-2_node_9; 
     phases ABCN; 
     voltage_A 7200+0.0j; 
     voltage_B -3600-6235j; 
     voltage_C -3600+6235j; 
     nominal_voltage 7200; 
} 

object node:61 { 
     name R5-12-47-2_node_10; 
     phases ABCN; 
     voltage_A 7200+0.0j; 
     voltage_B -3600-6235j; 
     voltage_C -3600+6235j; 
     nominal_voltage 7200; 
} 

object node:62 { 
     name R5-12-47-2_node_11; 
     phases ACN; 
     voltage_A 7200+0.0j; 
     voltage_C -3600+6235j; 
     nominal_voltage 7200; 
} 

object node:63 { 
     name R5-12-47-2_node_12; 
     phases ABCN; 
     voltage_A 7200+0.0j; 
     voltage_B -3600-6235j; 
     voltage_C -3600+6235j; 
     nominal_voltage 7200; 
} 

object node:64 { 
     name R5-12-47-2_node_13; 
     phases ABCN; 
     voltage_A 7200+0.0j; 
     voltage_B -3600-6235j; 
     voltage_C -3600+6235j; 
     nominal_voltage 7200; 
} 

object node:65 { 
     name R5-12-47-2_node_14; 
     phases ABCN; 
     voltage_A 7200+0.0j; 
     voltage_B -3600-6235j; 
     voltage_C -3600+6235j; 
     nominal_voltage 7200; 
} 

object node:66 { 
     name R5-12-47-2_node_15; 
     phases ABCN; 
     voltage_A 7200+0.0j; 
     voltage_B -3600-6235j; 
     voltage_C -3600+6235j; 
     nominal_voltage 7200; 
} 

object node:67 { 
     name R5-12-47-2_node_16; 
     phases ABCN; 
     voltage_A 7200+0.0j; 
     voltage_B -3600-6235j; 
     voltage_C -3600+6235j; 
     nominal_voltage 7200; 
} 

object node:68 { 
     name R5-12-47-2_node_17; 
     phases ABCN; 
     voltage_A 7200+0.0j; 
     voltage_B -3600-6235j; 
     voltage_C -3600+6235j; 
     nominal_voltage 7200; 
} 

object node:69 { 
     name R5-12-47-2_node_18; 
     phases ABCN; 
     voltage_A 7200+0.0j; 
     voltage_B -3600-6235j; 
     voltage_C -3600+6235j; 
     nominal_voltage 7200;
	  // object recorder {
		// property voltage_A,voltage_B,voltage_C;
		// interval 60;
		// limit 1440;
		// file "69.csv";
	// }; 
	object complex_assert{
		once ONCE_TRUE;
		in '2000-01-01 00:04:00 EST';
		target voltage_A;
		once ONCE_TRUE;
		in '2000-01-01 00:06:00 EST';
		value +7237.01-58.8908j;
		within 1;
	};
	object complex_assert{
		once ONCE_TRUE;
		in '2000-01-01 00:04:00 EST';
		once ONCE_TRUE;
		in '2000-01-01 00:06:00 EST';
		target voltage_B;
		value -3705.24-6244.62j;
		within 1;
	};
	object complex_assert{
		once ONCE_TRUE;
		in '2000-01-01 00:04:00 EST';
		once ONCE_TRUE;
		in '2000-01-01 00:06:00 EST';
		target voltage_C;
		value -3568.39+6300.85j;
		within 1;
	};	 
} 

object node:70 { 
     name R5-12-47-2_node_19; 
     phases ABCN; 
     voltage_A 7200+0.0j; 
     voltage_B -3600-6235j; 
     voltage_C -3600+6235j; 
     nominal_voltage 7200; 
} 

object node:71 { 
     name R5-12-47-2_node_20; 
     phases ABCN; 
     voltage_A 7200+0.0j; 
     voltage_B -3600-6235j; 
     voltage_C -3600+6235j; 
     nominal_voltage 7200; 
} 

object node:72 { 
     name R5-12-47-2_node_21; 
     phases ABCN; 
     voltage_A 7200+0.0j; 
     voltage_B -3600-6235j; 
     voltage_C -3600+6235j; 
     nominal_voltage 7200; 
} 

object node:73 { 
     name R5-12-47-2_node_22; 
     phases ABCN; 
     voltage_A 7200+0.0j; 
     voltage_B -3600-6235j; 
     voltage_C -3600+6235j; 
     nominal_voltage 7200; 
} 

object node:74 { 
     name R5-12-47-2_node_23; 
     phases ABCN; 
     voltage_A 7200+0.0j; 
     voltage_B -3600-6235j; 
     voltage_C -3600+6235j; 
     nominal_voltage 7200; 
} 

object node:75 { 
     name R5-12-47-2_node_24; 
     phases ABCN; 
     voltage_A 7200+0.0j; 
     voltage_B -3600-6235j; 
     voltage_C -3600+6235j; 
     nominal_voltage 7200; 
} 

object node:76 { 
     name R5-12-47-2_node_25; 
     phases ABCN; 
     voltage_A 7200+0.0j; 
     voltage_B -3600-6235j; 
     voltage_C -3600+6235j; 
     nominal_voltage 7200; 
} 

object node:77 { 
     name R5-12-47-2_node_26; 
     phases ABCN; 
     voltage_A 7200+0.0j; 
     voltage_B -3600-6235j; 
     voltage_C -3600+6235j; 
     nominal_voltage 7200; 
} 

object node:78 { 
     name R5-12-47-2_node_27; 
     phases ABCN; 
     voltage_A 7200+0.0j; 
     voltage_B -3600-6235j; 
     voltage_C -3600+6235j; 
     nominal_voltage 7200; 
} 

object node:79 { 
     name R5-12-47-2_node_28; 
     phases ABCN; 
     voltage_A 7200+0.0j; 
     voltage_B -3600-6235j; 
     voltage_C -3600+6235j; 
     nominal_voltage 7200; 
} 

object node:80 { 
     name R5-12-47-2_node_29; 
     phases ABCN; 
     voltage_A 7200+0.0j; 
     voltage_B -3600-6235j; 
     voltage_C -3600+6235j; 
     nominal_voltage 7200; 
} 

object node:81 { 
     name R5-12-47-2_node_30; 
     phases ABCN; 
     voltage_A 7200+0.0j; 
     voltage_B -3600-6235j; 
     voltage_C -3600+6235j; 
     nominal_voltage 7200; 
} 

object node:82 { 
     name R5-12-47-2_node_31; 
     phases BN; 
     voltage_B -3600-6235j; 
     nominal_voltage 7200; 
} 

object node:83 { 
     name R5-12-47-2_node_32; 
     phases CN; 
     voltage_C -3600+6235j; 
     nominal_voltage 7200; 
} 

object node:84 { 
     name R5-12-47-2_node_33; 
     phases ABN; 
     voltage_A 7200+0.0j; 
     voltage_B -3600-6235j; 
     nominal_voltage 7200; 
} 

object node:85 { 
     name R5-12-47-2_node_34; 
     phases CN; 
     voltage_C -3600+6235j; 
     nominal_voltage 7200; 
} 

object node:86 { 
     name R5-12-47-2_node_35; 
     phases ABN; 
     voltage_A 7200+0.0j; 
     voltage_B -3600-6235j; 
     nominal_voltage 7200; 
} 

object node:87 { 
     name R5-12-47-2_node_36; 
     phases AN; 
     voltage_A 7200+0.0j; 
     nominal_voltage 7200; 
} 

object node:88 { 
     name R5-12-47-2_node_37; 
     phases AN; 
     voltage_A 7200+0.0j; 
     nominal_voltage 7200; 
} 

object node:89 { 
     name R5-12-47-2_node_38; 
     phases AN; 
     voltage_A 7200+0.0j; 
     nominal_voltage 7200; 
} 

object node:90 { 
     name R5-12-47-2_node_39; 
     phases ABCN; 
     voltage_A 7200+0.0j; 
     voltage_B -3600-6235j; 
     voltage_C -3600+6235j; 
     nominal_voltage 7200; 
} 

object node:91 { 
     name R5-12-47-2_node_40; 
     phases ABCN; 
     voltage_A 7200+0.0j; 
     voltage_B -3600-6235j; 
     voltage_C -3600+6235j; 
     nominal_voltage 7200; 
} 

object node:92 { 
     name R5-12-47-2_node_41; 
     phases ABCN; 
     voltage_A 7200+0.0j; 
     voltage_B -3600-6235j; 
     voltage_C -3600+6235j; 
     nominal_voltage 7200; 
} 

object node:93 { 
     name R5-12-47-2_node_42; 
     phases ABCN; 
     voltage_A 7200+0.0j; 
     voltage_B -3600-6235j; 
     voltage_C -3600+6235j; 
     nominal_voltage 7200; 
} 

object node:94 { 
     name R5-12-47-2_node_43; 
     phases ABCN; 
     voltage_A 7200+0.0j; 
     voltage_B -3600-6235j; 
     voltage_C -3600+6235j; 
     nominal_voltage 7200; 
} 

object node:95 { 
     name R5-12-47-2_node_44; 
     phases ABCN; 
     voltage_A 7200+0.0j; 
     voltage_B -3600-6235j; 
     voltage_C -3600+6235j; 
     nominal_voltage 7200; 
} 

object node:96 { 
     name R5-12-47-2_node_45; 
     phases ABCN; 
     voltage_A 7200+0.0j; 
     voltage_B -3600-6235j; 
     voltage_C -3600+6235j; 
     nominal_voltage 7200; 
} 

object node:97 { 
     name R5-12-47-2_node_46; 
     phases ABCN; 
     voltage_A 7200+0.0j; 
     voltage_B -3600-6235j; 
     voltage_C -3600+6235j; 
     nominal_voltage 7200; 
} 

object node:98 { 
     name R5-12-47-2_node_47; 
     phases ABCN; 
     voltage_A 7200+0.0j; 
     voltage_B -3600-6235j; 
     voltage_C -3600+6235j; 
     nominal_voltage 7200; 
} 

object node:99 { 
     name R5-12-47-2_node_48; 
     phases ABCN; 
     voltage_A 7200+0.0j; 
     voltage_B -3600-6235j; 
     voltage_C -3600+6235j; 
     nominal_voltage 7200; 
} 

object node:100 { 
     name R5-12-47-2_node_49; 
     phases ABCN; 
     voltage_A 7200+0.0j; 
     voltage_B -3600-6235j; 
     voltage_C -3600+6235j; 
     nominal_voltage 7200; 
} 

object node:101 { 
     name R5-12-47-2_node_50; 
     phases ABCN; 
     voltage_A 7200+0.0j; 
     voltage_B -3600-6235j; 
     voltage_C -3600+6235j; 
     nominal_voltage 7200; 
} 

object node:102 { 
     name R5-12-47-2_node_51; 
     phases ABCN; 
     voltage_A 7200+0.0j; 
     voltage_B -3600-6235j; 
     voltage_C -3600+6235j; 
     nominal_voltage 7200; 
} 

object node:103 { 
     name R5-12-47-2_node_52; 
     phases AN; 
     voltage_A 7200+0.0j; 
     nominal_voltage 7200; 
} 

object node:104 { 
     name R5-12-47-2_node_53; 
     phases ABCN; 
     voltage_A 7200+0.0j; 
     voltage_B -3600-6235j; 
     voltage_C -3600+6235j; 
     nominal_voltage 7200; 
} 

object node:105 { 
     name R5-12-47-2_node_54; 
     phases ABCN; 
     voltage_A 7200+0.0j; 
     voltage_B -3600-6235j; 
     voltage_C -3600+6235j; 
     nominal_voltage 7200; 
} 

object node:106 { 
     name R5-12-47-2_node_55; 
     phases ABCN; 
     voltage_A 7200+0.0j; 
     voltage_B -3600-6235j; 
     voltage_C -3600+6235j; 
     nominal_voltage 7200; 
} 

object node:107 { 
     name R5-12-47-2_node_56; 
     phases ABCN; 
     voltage_A 7200+0.0j; 
     voltage_B -3600-6235j; 
     voltage_C -3600+6235j; 
     nominal_voltage 7200; 
} 

object node:108 { 
     name R5-12-47-2_node_57; 
     phases ABCN; 
     voltage_A 7200+0.0j; 
     voltage_B -3600-6235j; 
     voltage_C -3600+6235j; 
     nominal_voltage 7200; 
} 

object node:109 { 
     name R5-12-47-2_node_58; 
     phases ABCN; 
     voltage_A 7200+0.0j; 
     voltage_B -3600-6235j; 
     voltage_C -3600+6235j; 
     nominal_voltage 7200; 
} 

object node:110 { 
     name R5-12-47-2_node_59; 
     phases ABCN; 
     voltage_A 7200+0.0j; 
     voltage_B -3600-6235j; 
     voltage_C -3600+6235j; 
     nominal_voltage 7200; 
} 

object node:111 { 
     name R5-12-47-2_node_60; 
     phases ABCN; 
     voltage_A 7200+0.0j; 
     voltage_B -3600-6235j; 
     voltage_C -3600+6235j; 
     nominal_voltage 7200; 
} 

object node:112 { 
     name R5-12-47-2_node_61; 
     phases AN; 
     voltage_A 7200+0.0j; 
     nominal_voltage 7200; 
} 

object node:113 { 
     name R5-12-47-2_node_62; 
     phases ABCN; 
     voltage_A 7200+0.0j; 
     voltage_B -3600-6235j; 
     voltage_C -3600+6235j; 
     nominal_voltage 7200; 
} 

object node:114 { 
     name R5-12-47-2_node_63; 
     phases ABCN; 
     voltage_A 7200+0.0j; 
     voltage_B -3600-6235j; 
     voltage_C -3600+6235j; 
     nominal_voltage 7200; 
} 

object node:115 { 
     name R5-12-47-2_node_64; 
     phases ABCN; 
     voltage_A 7200+0.0j; 
     voltage_B -3600-6235j; 
     voltage_C -3600+6235j; 
     nominal_voltage 7200; 
} 

object node:116 { 
     name R5-12-47-2_node_65; 
     phases CN; 
     voltage_C -3600+6235j; 
     nominal_voltage 7200; 
} 

object node:117 { 
     name R5-12-47-2_node_66; 
     phases ABCN; 
     voltage_A 7200+0.0j; 
     voltage_B -3600-6235j; 
     voltage_C -3600+6235j; 
     nominal_voltage 7200; 
} 

object node:118 { 
     name R5-12-47-2_node_67; 
     phases ABCN; 
     voltage_A 7200+0.0j; 
     voltage_B -3600-6235j; 
     voltage_C -3600+6235j; 
     nominal_voltage 7200; 
} 

object node:119 { 
     name R5-12-47-2_node_68; 
     phases ABCN; 
     voltage_A 7200+0.0j; 
     voltage_B -3600-6235j; 
     voltage_C -3600+6235j; 
     nominal_voltage 7200; 
} 

object node:120 { 
     name R5-12-47-2_node_69; 
     phases AN; 
     voltage_A 7200+0.0j; 
     nominal_voltage 7200; 
} 

object node:121 { 
     name R5-12-47-2_node_70; 
     phases BN; 
     voltage_B -3600-6235j; 
     nominal_voltage 7200; 
} 

object node:122 { 
     name R5-12-47-2_node_71; 
     phases AN; 
     voltage_A 7200+0.0j; 
     nominal_voltage 7200; 
} 

object node:123 { 
     name R5-12-47-2_node_72; 
     phases BN; 
     voltage_B -3600-6235j; 
     nominal_voltage 7200; 
} 

object node:124 { 
     name R5-12-47-2_node_73; 
     phases ABCN; 
     voltage_A 7200+0.0j; 
     voltage_B -3600-6235j; 
     voltage_C -3600+6235j; 
     nominal_voltage 7200; 
} 

object node:125 { 
     name R5-12-47-2_node_74; 
     phases ACN; 
     voltage_A 7200+0.0j; 
     voltage_C -3600+6235j; 
     nominal_voltage 7200; 
} 

object node:126 { 
     name R5-12-47-2_node_75; 
     phases CN; 
     voltage_C -3600+6235j; 
     nominal_voltage 7200; 
} 

object node:127 { 
     name R5-12-47-2_node_76; 
     phases ABCN; 
     voltage_A 7200+0.0j; 
     voltage_B -3600-6235j; 
     voltage_C -3600+6235j; 
     nominal_voltage 7200; 
} 

object node:128 { 
     name R5-12-47-2_node_77; 
     phases ABCN; 
     voltage_A 7200+0.0j; 
     voltage_B -3600-6235j; 
     voltage_C -3600+6235j; 
     nominal_voltage 7200; 
} 

object node:129 { 
     name R5-12-47-2_node_78; 
     phases CN; 
     voltage_C -3600+6235j; 
     nominal_voltage 7200; 
} 

object node:130 { 
     name R5-12-47-2_node_79; 
     phases BN; 
     voltage_B -3600-6235j; 
     nominal_voltage 7200; 
} 

object node:131 { 
     name R5-12-47-2_node_80; 
     phases BN; 
     voltage_B -3600-6235j; 
     nominal_voltage 7200; 
} 

object node:132 { 
     name R5-12-47-2_node_81; 
     phases ABCN; 
     voltage_A 7200+0.0j; 
     voltage_B -3600-6235j; 
     voltage_C -3600+6235j; 
     nominal_voltage 7200; 
} 

object node:133 { 
     name R5-12-47-2_node_82; 
     phases ABCN; 
     voltage_A 7200+0.0j; 
     voltage_B -3600-6235j; 
     voltage_C -3600+6235j; 
     nominal_voltage 7200; 
} 

object node:134 { 
     name R5-12-47-2_node_83; 
     phases ABCN; 
     voltage_A 7200+0.0j; 
     voltage_B -3600-6235j; 
     voltage_C -3600+6235j; 
     nominal_voltage 7200; 
} 

object node:135 { 
     name R5-12-47-2_node_84; 
     phases ABCN; 
     voltage_A 7200+0.0j; 
     voltage_B -3600-6235j; 
     voltage_C -3600+6235j; 
     nominal_voltage 7200; 
} 

object node:136 { 
     name R5-12-47-2_node_85; 
     phases BN; 
     voltage_B -3600-6235j; 
     nominal_voltage 7200; 
} 

object node:137 { 
     name R5-12-47-2_node_86; 
     phases ABCN; 
     voltage_A 7200+0.0j; 
     voltage_B -3600-6235j; 
     voltage_C -3600+6235j; 
     nominal_voltage 7200; 
} 

object node:138 { 
     name R5-12-47-2_node_87; 
     phases BN; 
     voltage_B -3600-6235j; 
     nominal_voltage 7200; 
} 

object node:139 { 
     name R5-12-47-2_node_88; 
     phases CN; 
     voltage_C -3600+6235j; 
     nominal_voltage 7200; 
} 

object node:140 { 
     name R5-12-47-2_node_89; 
     phases ABCN; 
     voltage_A 7200+0.0j; 
     voltage_B -3600-6235j; 
     voltage_C -3600+6235j; 
     nominal_voltage 7200; 
} 

object node:141 { 
     name R5-12-47-2_node_90; 
     phases ACN; 
     voltage_A 7200+0.0j; 
     voltage_C -3600+6235j; 
     nominal_voltage 7200; 
} 

object node:142 { 
     name R5-12-47-2_node_91; 
     phases ABCN; 
     voltage_A 7200+0.0j; 
     voltage_B -3600-6235j; 
     voltage_C -3600+6235j; 
     nominal_voltage 7200; 
} 

object node:143 { 
     name R5-12-47-2_node_92; 
     phases ABCN; 
     voltage_A 7200+0.0j; 
     voltage_B -3600-6235j; 
     voltage_C -3600+6235j; 
     nominal_voltage 7200; 
} 

object node:144 { 
     name R5-12-47-2_node_93; 
     phases ABCN; 
     voltage_A 7200+0.0j; 
     voltage_B -3600-6235j; 
     voltage_C -3600+6235j; 
     nominal_voltage 7200; 
} 

object node:145 { 
     name R5-12-47-2_node_94; 
     phases AN; 
     voltage_A 7200+0.0j; 
     nominal_voltage 7200; 
} 

object node:146 { 
     name R5-12-47-2_node_95; 
     phases CN; 
     voltage_C -3600+6235j; 
     nominal_voltage 7200; 
} 

object node:147 { 
     name R5-12-47-2_node_96; 
     phases BN; 
     voltage_B -3600-6235j; 
     nominal_voltage 7200; 
} 

object node:148 { 
     name R5-12-47-2_node_97; 
     phases ABCN; 
     voltage_A 7200+0.0j; 
     voltage_B -3600-6235j; 
     voltage_C -3600+6235j; 
     nominal_voltage 7200; 
} 

object node:149 { 
     name R5-12-47-2_node_98; 
     phases ABCN; 
     voltage_A 7200+0.0j; 
     voltage_B -3600-6235j; 
     voltage_C -3600+6235j; 
     nominal_voltage 7200; 
} 

object node:150 { 
     name R5-12-47-2_node_99; 
     phases ABCN; 
     voltage_A 7200+0.0j; 
     voltage_B -3600-6235j; 
     voltage_C -3600+6235j; 
     nominal_voltage 7200; 
} 

object node:151 { 
     name R5-12-47-2_node_100; 
     phases ACN; 
     voltage_A 7200+0.0j; 
     voltage_C -3600+6235j; 
     nominal_voltage 7200; 
} 

object node:152 { 
     name R5-12-47-2_node_101; 
     phases ABCN; 
     voltage_A 7200+0.0j; 
...